Codigos/Carga/ieee5_1_0100.txt
 10/12/20 CASO TESTE           001.0  2020 W MILTON  5 Bus Test Case - Pg 18 Ch 02
=========1=========2=========3=========4=========5=========6=========7=========8=========9=========0=========1=========2=========3==
1234 NNNNNNNNNNNN AAZZZ TT X.XXXX+XXX.XX+XXXXX.XX+XXXXX.XX+XXXXX.XX+XXXX.XX XXXX.XX X.XXXX+XXXX.XX+XXXX.XX+XX.XXXX+XX.XXXX 1234 1234
BUS DATA FOLLOWS                            05 ITEMS
   1 Bus 1     HV  1  1  3 1.0000   0.00      0.0      0.0     0.00    0.00    1.00 1.0000    0.00    0.00  0.0000  0.0000    0
   2 Bus 2     HV  1  1  1 0.8338 -22.41      1.2      0.4     0.00    0.00    1.00 1.0000    0.00    0.00  0.0000  0.0000    0
   3 Bus 3     HV  1  1  2 1.0500  -0.60      0.1      0.1     5.20    0.00    1.00 1.0500    0.00    0.00  0.0000  0.0000    0
   4 Bus 4     HV  1  1  1 1.0190  -2.83      0.0      0.0     0.00    0.00    1.00 1.0000    0.00    0.00  0.0000  0.0000    0
   5 Bus 5     HV  1  1  1 0.9740  -4.55      0.0      0.0     0.00    0.00    1.00 1.0000    0.00    0.00  0.0000  0.0000    0
-999
=========1=========2=========3=========4=========5=========6=========7=========8=========9=========0=========1=========2=========3==
1234 1234 AAZZZ C T+xx.xxxxxx+xx.xxxxxx xxx.xxxxx 12345 12345 12345 1234 1  x.xxxx +xxx.xx x.xxxx x.xxxx .xxxxx  x.xxxx  x.xxxx 1234
BRANCH DATA FOLLOWS                         05 ITEMS
   1    5  1  1 1 0  0.001500  0.020000   0.00000     0     0     0    0 0  0.0000    0.00 0.0000 0.0000 .00000  0.0000  0.0000
   2    4  1  1 1 0  0.009000  0.100000   1.72000     0     0     0    0 0  0.0000    0.00 0.0000 0.0000 .00000  0.0000  0.0000
   2    5  1  1 1 0  0.004500  0.050000   0.88000     0     0     0    0 0  0.0000    0.00 0.0000 0.0000 .00000  0.0000  0.0000
   3    4  1  1 1 0  0.000750  0.010000   0.00000     0     0     0    0 0  0.0000    0.00 0.0000 0.0000 .00000  0.0000  0.0000
   4    5  1  1 1 0  0.002250  0.025000   0.44000     0     0     0    0 0  0.0000    0.00 0.0000 0.0000 .00000  0.0000  0.0000
-999
LOSS ZONES FOLLOWS                          01 ITEMS
  1 IEEE 5 BUS
-99
INTERCHANGE DATA FOLLOWS                    00 ITEMS
-9
TIE LINES FOLLOWS                           00 ITEMS
-999
END OF DATA
